* CD4007UBE Models by Prof. Hummels
* based on measurements in 2009
*
.MODEL CD4007N1 NMOS (LEVEL=1 CBD=2.0p CBS=2.0p
+CGDO=0.1p CGSO=0.1p GAMMA=1.8 IS=16.64p KP=150u
+LAMBDA=0.01 PB=.8 PHI=.3 TOX=1200n
+VT0=0.95 )
*
.MODEL CD4007P1 PMOS (LEVEL=1 CBD=4.0p CBS=4.0p
+CGDO=0.2p CGSO=0.2p GAMMA=.42 IS=16.64p KP=55u
+LAMBDA=0.04 PB=.8 PHI=.6 TOX=1200n
+VT0=-1.0 )

