.model LED_ref1 D (IS=4e-24 RS=2 TT=11e-9)
