*********************************
***** Model for IR1503 LED  *****
***** DEK - 26 October 2017 *****
*********************************

.model LED_ref1 D (IS = 2e-22 BV=-5 IBV=1e-5)

